<configuration>
  <input>
    <net-file         value="cross.net.xml"/>
    <route-files      value="cross.rou.xml"/>
  </input>

  <time>
    <begin value="0"/>
    <end   value="86400"/>
    <step-length value="1.0"/>
  </time>
</configuration>
